/*--------------------------------*- C++ -*----------------------------------*\
| =========                 |                                                 |
| \\      /  F ield         | OpenFOAM: The Open Source CFD Toolbox           |
|  \\    /   O peration     | Version:  2.1                                   |
|   \\  /    A nd           | Web:      www.OpenFOAM.org                      |
|    \\/     M anipulation  |                                                 |
\*---------------------------------------------------------------------------*/
/*   Windows 32 and 64 bit porting by blueCAPE: http://www.bluecape.com.pt   *\
|  Based on Windows porting (2.0.x v4) by Symscape: http://www.symscape.com   |
\*---------------------------------------------------------------------------*/
FoamFile
{
    version     2.0;
    format      ascii;
    class       featureEdgeMesh;
    location    "constant/triSurface";
    object      mymesh.eMesh;
}
// * * * * * * * * * * * * * * * * * * * * * * * * * * * * * * * * * * * * * //


// points:

32
(
(0.695458 0.5 0.655872)
(0.743732 0.5 0.55563)
(0.672345 0.672345 0.55563)
(0.63821 0.63821 0.655872)
(0.743732 0.5 0.44437)
(0.672345 0.672345 0.44437)
(0.695458 0.5 0.344128)
(0.63821 0.63821 0.344128)
(0.5 0.743732 0.55563)
(0.5 0.695458 0.655872)
(0.5 0.743732 0.44437)
(0.5 0.695458 0.344128)
(0.327655 0.672345 0.55563)
(0.36179 0.63821 0.655872)
(0.327655 0.672345 0.44437)
(0.36179 0.63821 0.344128)
(0.256268 0.5 0.55563)
(0.304542 0.5 0.655872)
(0.256268 0.5 0.44437)
(0.304542 0.5 0.344128)
(0.327655 0.327655 0.55563)
(0.36179 0.36179 0.655872)
(0.327655 0.327655 0.44437)
(0.36179 0.36179 0.344128)
(0.5 0.256268 0.55563)
(0.5 0.304542 0.655872)
(0.5 0.256268 0.44437)
(0.5 0.304542 0.344128)
(0.672345 0.327655 0.55563)
(0.63821 0.36179 0.655872)
(0.672345 0.327655 0.44437)
(0.63821 0.36179 0.344128)
)


// edges:

24
(
(0 1)
(2 3)
(1 4)
(5 2)
(4 6)
(7 5)
(8 9)
(10 8)
(11 10)
(12 13)
(14 12)
(15 14)
(16 17)
(18 16)
(19 18)
(20 21)
(22 20)
(23 22)
(24 25)
(26 24)
(27 26)
(28 29)
(30 28)
(31 30)
)

// * * * * * * * * * * * * * * * * * * * * * * * * * * * * * * * * * * * * * //


// ************************************************************************* //
