FoamFile
{
    version         2.0;
    format          ascii;
 
    root            "";
    case            "";
    instance        "";
    local           "";
 
    class           dictionary;
    object          decomposeParDict;
}
 
numberOfSubdomains 4;
 
method          simple;
 
simpleCoeffs
{
    n               (1 4 1);
    delta           0.001;
}
 
hierarchicalCoeffs
{
    n               (1 1 1);
    delta           0.001;
    order           xyz;
}
 
metisCoeffs
{
    processorWeights 
    (
        1
        1
        1
    );
}
 
manualCoeffs
{
    dataFile        "";
}
 
distributed     no;
 
roots           
(

);