/*--------------------------------*- C++ -*----------------------------------*\
| =========                 |                                                 |
| \\      /  F ield         | OpenFOAM: The Open Source CFD Toolbox           |
|  \\    /   O peration     | Version:  2.1                                   |
|   \\  /    A nd           | Web:      www.OpenFOAM.org                      |
|    \\/     M anipulation  |                                                 |
\*---------------------------------------------------------------------------*/
/*   Windows 32 and 64 bit porting by blueCAPE: http://www.bluecape.com.pt   *\
|  Based on Windows porting (2.0.x v4) by Symscape: http://www.symscape.com   |
\*---------------------------------------------------------------------------*/
FoamFile
{
    version     2.0;
    format      ascii;
    class       polyBoundaryMesh;
    location    "1/polyMesh";
    object      boundary;
}
// * * * * * * * * * * * * * * * * * * * * * * * * * * * * * * * * * * * * * //

4
(
    my_cube_faces
    {
        type            patch;
        nFaces          60000;
        startFace       2899538;
    }
    outlet_patch0
    {
        type            patch;
        nFaces          0;
        startFace       2959538;
    }
    defaultName_patch0
    {
        type            wall;
        nFaces          6196;
        startFace       2959538;
    }
    inlet_patch0
    {
        type            patch;
        nFaces          28;
        startFace       2965734;
    }
)

// ************************************************************************* //
