/*--------------------------------*- C++ -*----------------------------------*\
| =========                 |                                                 |
| \\      /  F ield         | OpenFOAM: The Open Source CFD Toolbox           |
|  \\    /   O peration     | Version:  2.1                                   |
|   \\  /    A nd           | Web:      www.OpenFOAM.org                      |
|    \\/     M anipulation  |                                                 |
\*---------------------------------------------------------------------------*/
/*   Windows 32 and 64 bit porting by blueCAPE: http://www.bluecape.com.pt   *\
|  Based on Windows porting (2.0.x v4) by Symscape: http://www.symscape.com   |
\*---------------------------------------------------------------------------*/
FoamFile
{
    version     2.0;
    format      ascii;
    class       polyBoundaryMesh;
    location    "constant/polyMesh";
    object      boundary;
}
// * * * * * * * * * * * * * * * * * * * * * * * * * * * * * * * * * * * * * //

4
(
    Default_Boundary_Region
    {
        type            wall;
        nFaces          1300;
        startFace       17100;
    }
    inlet
    {
        type            patch;
        nFaces          100;
        startFace       18400;
    }
    outlet
    {
        type            patch;
        nFaces          200;
        startFace       18500;
    }
    sides
    {
        type            symmetryPlane;
        nFaces          200;
        startFace       18700;
    }
)

// ************************************************************************* //
