/*--------------------------------*- C++ -*----------------------------------*/

// File was generated by SwiftSnap, a Blender 3D addon.

FoamFile
{
    version     2.0;
    format      ascii;
    class       dictionary;
    object      snappyHexMeshDict;
}
// * * * * * * * * * * * * * * * * * * * * * * * * * * * * * * * * * * * * * //

castellatedMesh true;
snap            true;
addLayers       false;

geometry
{
    outlet.obj
    {
        type triSurfaceMesh;
        name outlet;
    }
    defaultName.obj
    {
        type triSurfaceMesh;
        name defaultName;
    }
    inlet.obj
    {
        type triSurfaceMesh;
        name inlet;
    }
};

castellatedMeshControls
{
    features
    (
    );
    refinementSurfaces
    {
        outlet
        {
            level (0 0);
            patchInfo
            {
                type patch;
            }
        }
        defaultName
        {
            level (0 0);
            patchInfo
            {
                type wall;
            }
        }
        inlet
        {
            level (0 0);
            patchInfo
            {
                type patch;
            }
        }
    }
    refinementRegions
    {
    }
    locationInMesh (0 0 0);

    maxLocalCells 100000;
    maxGlobalCells 2000000;
    minRefinementCells 0;
    nCellsBetweenLevels 1;
    resolveFeatureAngle 30.0;
    allowFreeStandingZoneFaces true;
}

addLayersControls
{
    layers
    {
        "outlet.*"
        {
            nSurfaceLayers 0;
        }
        "defaultName.*"
        {
            nSurfaceLayers 0;
        }
        "inlet.*"
        {
            nSurfaceLayers 0;
        }
    }

    relativeSizes true;
    expansionRatio 1.25;
    finalLayerThickness 0.3;
    minThickness 0.25;
    nGrow 0;
    featureAngle 30;
    slipFeatureAngle 30;
    nRelaxIter 5;
    nSmoothSurfaceNormals 1;
    nSmoothNormals 3;
    nSmoothThickness 10;
    maxFaceThicknessRatio 0.5;
    maxThicknessToMedialRatio 0.3;
    minMedianAxisAngle 90;
    nBufferCellsNoExtrude 0;
    nLayerIter 50;
    nRelaxedIter 20;
    nLayerIter 50;
}

snapControls
{
    nSmoothPatch 3;
    tolerance 1.0;
    nSolveIter 300;
    nRelaxIter 5;
    nFeatureSnapIter 10;
    implicitFeatureSnap false;
    explicitFeatureSnap true;
    multiRegionFeatureSnap false;
}

meshQualityControls
{
    maxNonOrtho 65;
    maxBoundarySkewness 20;
    maxInternalSkewness 4;
    maxConcave 80;
    minVol 1e-13;
    minTetQuality 1e-30;
    minArea -1;
    minTwist 0.05;
    minDeterminant 0.001;
    minFaceWeight 0.05;
    minVolRatio 0.01;
    minTriangleTwist -1;
    nSmoothScale 4;
    errorReduction 0.75;
    relaxed
    {
        maxNonOrtho 75;
    }
}

debug 0;
mergeTolerance 1E-6;
// ************************************************************************* //