/*--------------------------------*- C++ -*----------------------------------*\
| =========                 |                                                 |
| \\      /  F ield         | OpenFOAM: The Open Source CFD Toolbox           |
|  \\    /   O peration     | Version:  2.1                                   |
|   \\  /    A nd           | Web:      www.OpenFOAM.org                      |
|    \\/     M anipulation  |                                                 |
\*---------------------------------------------------------------------------*/
/*   Windows 32 and 64 bit porting by blueCAPE: http://www.bluecape.com.pt   *\
|  Based on Windows porting (2.0.x v4) by Symscape: http://www.symscape.com   |
\*---------------------------------------------------------------------------*/
FoamFile
{
    version     2.0;
    format      ascii;
    class       featureEdgeMesh;
    location    "constant/triSurface";
    object      ToolOpenFoamExample22.eMesh;
}
// * * * * * * * * * * * * * * * * * * * * * * * * * * * * * * * * * * * * * //


// points:

66
(
(0.341593 0.331631 0.217527)
(0.341593 0.331631 0.122848)
(0.376685 0.302831 0.122848)
(0.376685 0.302831 0.217527)
(0.273765 0.495381 0.217527)
(0.273765 0.495381 0.122848)
(0.278215 0.450202 0.122848)
(0.278215 0.450202 0.217527)
(0.341592 0.659131 0.217527)
(0.341592 0.659131 0.122848)
(0.312793 0.624039 0.122848)
(0.312793 0.624039 0.217527)
(0.505343 0.726959 0.217527)
(0.505343 0.726959 0.122848)
(0.460164 0.722509 0.122848)
(0.460164 0.722509 0.217527)
(0.669093 0.331631 0.217527)
(0.669093 0.331631 0.122848)
(0.697892 0.366723 0.122848)
(0.697892 0.366723 0.217527)
(0.505343 0.263804 0.217527)
(0.505343 0.263804 0.122848)
(0.550521 0.268253 0.122848)
(0.550521 0.268253 0.217527)
(0.669093 0.659131 0.217527)
(0.669093 0.659131 0.122848)
(0.634 0.687931 0.122848)
(0.634 0.687931 0.217527)
(0.73692 0.495381 0.217527)
(0.73692 0.495381 0.122848)
(0.732471 0.54056 0.122848)
(0.732471 0.54056 0.217527)
(0.416722 0.281431 0.122848)
(0.416722 0.281431 0.217527)
(0.291393 0.40676 0.122848)
(0.291393 0.40676 0.217527)
(0.291393 0.584002 0.122848)
(0.291393 0.584002 0.217527)
(0.416722 0.709331 0.122848)
(0.416722 0.709331 0.217527)
(0.719292 0.584002 0.122848)
(0.719292 0.584002 0.217527)
(0.719292 0.40676 0.122848)
(0.719292 0.40676 0.217527)
(0.593964 0.281431 0.122848)
(0.593964 0.281431 0.217527)
(0.593964 0.709331 0.122848)
(0.593964 0.709331 0.217527)
(0.460164 0.268253 0.122848)
(0.460164 0.268253 0.217527)
(0.312793 0.366723 0.122848)
(0.312793 0.366723 0.217527)
(0.278215 0.540559 0.122848)
(0.278215 0.540559 0.217527)
(0.376685 0.687931 0.122848)
(0.376685 0.687931 0.217527)
(0.550521 0.722509 0.122848)
(0.550521 0.722509 0.217527)
(0.697892 0.624039 0.122848)
(0.697892 0.624039 0.217527)
(0.732471 0.450203 0.122848)
(0.732471 0.450203 0.217527)
(0.634 0.302831 0.122848)
(0.634 0.302831 0.217527)
(0.505343 0.495381 0.269107)
(0.505343 0.495381 0.0558828)
)


// edges:

192
(
(2 0)
(0 1)
(1 2)
(2 3)
(3 0)
(6 4)
(4 5)
(5 6)
(6 7)
(7 4)
(10 8)
(8 9)
(9 10)
(10 11)
(11 8)
(14 12)
(12 13)
(13 14)
(14 15)
(15 12)
(18 16)
(16 17)
(17 18)
(18 19)
(19 16)
(22 20)
(20 21)
(21 22)
(22 23)
(23 20)
(26 24)
(24 25)
(25 26)
(26 27)
(27 24)
(30 28)
(28 29)
(29 30)
(30 31)
(31 28)
(32 3)
(2 32)
(32 33)
(33 3)
(34 7)
(6 34)
(34 35)
(35 7)
(36 11)
(10 36)
(36 37)
(37 11)
(38 15)
(14 38)
(38 39)
(39 15)
(40 31)
(30 40)
(40 41)
(41 31)
(42 19)
(18 42)
(42 43)
(43 19)
(44 23)
(22 44)
(44 45)
(45 23)
(46 27)
(26 46)
(46 47)
(47 27)
(48 33)
(32 48)
(48 49)
(49 33)
(50 35)
(34 50)
(50 51)
(51 35)
(52 37)
(36 52)
(52 53)
(53 37)
(54 39)
(38 54)
(54 55)
(55 39)
(56 47)
(46 56)
(56 57)
(57 47)
(58 41)
(40 58)
(58 59)
(59 41)
(60 43)
(42 60)
(60 61)
(61 43)
(62 45)
(44 62)
(62 63)
(63 45)
(49 21)
(20 49)
(48 21)
(5 53)
(52 5)
(4 53)
(9 55)
(54 9)
(8 55)
(13 57)
(56 13)
(12 57)
(29 61)
(60 29)
(28 61)
(17 63)
(62 17)
(16 63)
(1 51)
(50 1)
(0 51)
(25 59)
(58 25)
(24 59)
(45 64)
(64 23)
(64 51)
(0 64)
(64 27)
(24 64)
(41 64)
(64 59)
(64 35)
(7 64)
(64 4)
(43 64)
(64 19)
(16 64)
(64 63)
(64 15)
(12 64)
(47 64)
(64 57)
(49 64)
(64 33)
(3 64)
(64 31)
(28 64)
(64 61)
(64 11)
(8 64)
(39 64)
(64 55)
(37 64)
(64 53)
(64 20)
(1 65)
(65 50)
(65 46)
(26 65)
(65 38)
(54 65)
(10 65)
(65 9)
(60 65)
(65 29)
(65 40)
(30 65)
(65 2)
(32 65)
(65 48)
(56 65)
(14 65)
(65 13)
(62 65)
(65 17)
(65 42)
(18 65)
(5 65)
(65 6)
(34 65)
(58 65)
(65 25)
(22 65)
(65 44)
(36 65)
(65 52)
(21 65)
)

// * * * * * * * * * * * * * * * * * * * * * * * * * * * * * * * * * * * * * //


// ************************************************************************* //
