/*--------------------------------*- C++ -*----------------------------------*\
| =========                 |                                                 |
| \\      /  F ield         | OpenFOAM: The Open Source CFD Toolbox           |
|  \\    /   O peration     | Version:  2.1                                   |
|   \\  /    A nd           | Web:      www.OpenFOAM.org                      |
|    \\/     M anipulation  |                                                 |
\*---------------------------------------------------------------------------*/
/*   Windows 32 and 64 bit porting by blueCAPE: http://www.bluecape.com.pt   *\
|  Based on Windows porting (2.0.x v4) by Symscape: http://www.symscape.com   |
\*---------------------------------------------------------------------------*/
FoamFile
{
    version     2.0;
    format      ascii;
    class       extendedFeatureEdgeMesh;
    location    "constant/extendedFeatureEdgeMesh";
    object      mymesh.extendedFeatureEdgeMesh;
}
// * * * * * * * * * * * * * * * * * * * * * * * * * * * * * * * * * * * * * //

// points, edges, concaveStart, mixedStart, nonFeatureStart, 
// internalStart, flatStart, openStart, multipleStart, 
// normals, edgeNormals, featurePointNormals, regionEdges


66
(
(0.341593 0.331631 0.217527)
(0.341593 0.331631 0.122848)
(0.376685 0.302831 0.122848)
(0.376685 0.302831 0.217527)
(0.273765 0.495381 0.217527)
(0.273765 0.495381 0.122848)
(0.278215 0.450202 0.122848)
(0.278215 0.450202 0.217527)
(0.341592 0.659131 0.217527)
(0.341592 0.659131 0.122848)
(0.312793 0.624039 0.122848)
(0.312793 0.624039 0.217527)
(0.505343 0.726959 0.217527)
(0.505343 0.726959 0.122848)
(0.460164 0.722509 0.122848)
(0.460164 0.722509 0.217527)
(0.669093 0.331631 0.217527)
(0.669093 0.331631 0.122848)
(0.697892 0.366723 0.122848)
(0.697892 0.366723 0.217527)
(0.505343 0.263804 0.217527)
(0.505343 0.263804 0.122848)
(0.550521 0.268253 0.122848)
(0.550521 0.268253 0.217527)
(0.669093 0.659131 0.217527)
(0.669093 0.659131 0.122848)
(0.634 0.687931 0.122848)
(0.634 0.687931 0.217527)
(0.73692 0.495381 0.217527)
(0.73692 0.495381 0.122848)
(0.732471 0.54056 0.122848)
(0.732471 0.54056 0.217527)
(0.416722 0.281431 0.122848)
(0.416722 0.281431 0.217527)
(0.291393 0.40676 0.122848)
(0.291393 0.40676 0.217527)
(0.291393 0.584002 0.122848)
(0.291393 0.584002 0.217527)
(0.416722 0.709331 0.122848)
(0.416722 0.709331 0.217527)
(0.719292 0.584002 0.122848)
(0.719292 0.584002 0.217527)
(0.719292 0.40676 0.122848)
(0.719292 0.40676 0.217527)
(0.593964 0.281431 0.122848)
(0.593964 0.281431 0.217527)
(0.593964 0.709331 0.122848)
(0.593964 0.709331 0.217527)
(0.460164 0.268253 0.122848)
(0.460164 0.268253 0.217527)
(0.312793 0.366723 0.122848)
(0.312793 0.366723 0.217527)
(0.278215 0.540559 0.122848)
(0.278215 0.540559 0.217527)
(0.376685 0.687931 0.122848)
(0.376685 0.687931 0.217527)
(0.550521 0.722509 0.122848)
(0.550521 0.722509 0.217527)
(0.697892 0.624039 0.122848)
(0.697892 0.624039 0.217527)
(0.732471 0.450203 0.122848)
(0.732471 0.450203 0.217527)
(0.634 0.302831 0.122848)
(0.634 0.302831 0.217527)
(0.505343 0.495381 0.269107)
(0.505343 0.495381 0.055883)
)


192
(
(2 0)
(0 1)
(1 2)
(2 3)
(3 0)
(6 4)
(4 5)
(5 6)
(6 7)
(7 4)
(10 8)
(8 9)
(9 10)
(10 11)
(11 8)
(14 12)
(12 13)
(13 14)
(14 15)
(15 12)
(18 16)
(16 17)
(17 18)
(18 19)
(19 16)
(22 20)
(20 21)
(21 22)
(22 23)
(23 20)
(26 24)
(24 25)
(25 26)
(26 27)
(27 24)
(30 28)
(28 29)
(29 30)
(30 31)
(31 28)
(32 3)
(2 32)
(32 33)
(33 3)
(34 7)
(6 34)
(34 35)
(35 7)
(36 11)
(10 36)
(36 37)
(37 11)
(38 15)
(14 38)
(38 39)
(39 15)
(40 31)
(30 40)
(40 41)
(41 31)
(42 19)
(18 42)
(42 43)
(43 19)
(44 23)
(22 44)
(44 45)
(45 23)
(46 27)
(26 46)
(46 47)
(47 27)
(48 33)
(32 48)
(48 49)
(49 33)
(50 35)
(34 50)
(50 51)
(51 35)
(52 37)
(36 52)
(52 53)
(53 37)
(54 39)
(38 54)
(54 55)
(55 39)
(56 47)
(46 56)
(56 57)
(57 47)
(58 41)
(40 58)
(58 59)
(59 41)
(60 43)
(42 60)
(60 61)
(61 43)
(62 45)
(44 62)
(62 63)
(63 45)
(49 21)
(20 49)
(48 21)
(5 53)
(52 5)
(4 53)
(9 55)
(54 9)
(8 55)
(13 57)
(56 13)
(12 57)
(29 61)
(60 29)
(28 61)
(17 63)
(62 17)
(16 63)
(1 51)
(50 1)
(0 51)
(25 59)
(58 25)
(24 59)
(45 64)
(64 23)
(64 51)
(0 64)
(64 27)
(24 64)
(41 64)
(64 59)
(64 35)
(7 64)
(64 4)
(43 64)
(64 19)
(16 64)
(64 63)
(64 15)
(12 64)
(47 64)
(64 57)
(49 64)
(64 33)
(3 64)
(64 31)
(28 64)
(64 61)
(64 11)
(8 64)
(39 64)
(64 55)
(37 64)
(64 53)
(64 20)
(1 65)
(65 50)
(65 46)
(26 65)
(65 38)
(54 65)
(10 65)
(65 9)
(60 65)
(65 29)
(65 40)
(30 65)
(65 2)
(32 65)
(65 48)
(56 65)
(14 65)
(65 13)
(62 65)
(65 17)
(65 42)
(18 65)
(5 65)
(65 6)
(34 65)
(58 65)
(65 25)
(22 65)
(65 44)
(36 65)
(65 52)
(21 65)
)

0 0 66 0 0 0 0

256
(
(-0.634403 -0.773002 -0)
(-0.634403 -0.773002 0)
(0.634403 0.773002 0)
(0.634403 0.773002 0)
(-0.773002 -0.634403 0)
(0.773002 0.634403 0)
(-0.177016 -0.215689 -0.960283)
(0.177016 0.215689 0.960283)
(-0.471393 -0.881923 -0)
(0.471393 0.881923 0)
(-0.138558 -0.168829 0.975858)
(0.138558 0.168829 -0.975858)
(-0.995184 -0.0980226 -0)
(-0.995184 -0.0980226 0)
(0.995184 0.0980226 0)
(0.995184 0.0980226 0)
(-0.995184 0.0980248 0)
(0.995184 -0.0980248 0)
(-0.277683 -0.027351 -0.960283)
(0.277683 0.027351 0.960283)
(-0.95694 -0.290285 -0)
(0.95694 0.290285 0)
(-0.217355 -0.0214088 0.975858)
(0.217355 0.0214088 -0.975858)
(-0.773013 0.63439 0)
(-0.773013 0.63439 0)
(0.773013 -0.63439 0)
(0.773013 -0.63439 0)
(-0.634393 0.773011 0)
(0.634393 -0.773011 0)
(0.215691 -0.177012 0.960283)
(-0.215691 0.177012 -0.960283)
(-0.881923 0.471393 0)
(0.881923 -0.471393 0)
(0.168831 -0.138555 -0.975858)
(-0.168831 0.138555 0.975858)
(-0.0980219 0.995184 0)
(-0.0980219 0.995184 0)
(0.0980219 -0.995184 0)
(0.0980219 -0.995184 0)
(0.0980241 0.995184 -0)
(-0.0980241 -0.995184 0)
(0.0273508 -0.277683 0.960283)
(-0.0273508 0.277683 -0.960283)
(-0.290286 0.95694 0)
(0.290286 -0.95694 0)
(0.0214087 -0.217356 -0.975858)
(-0.0214087 0.217356 0.975858)
(0.773013 -0.63439 0)
(0.773013 -0.63439 0)
(-0.773013 0.63439 0)
(-0.773013 0.63439 0)
(0.634392 -0.773011 0)
(-0.634392 0.773011 0)
(0.215692 -0.177012 -0.960283)
(-0.215692 0.177012 0.960283)
(0.881924 -0.471392 0)
(-0.881924 0.471392 0)
(0.168832 -0.138556 0.975858)
(-0.168832 0.138556 -0.975858)
(0.0980033 -0.995186 0)
(0.0980033 -0.995186 0)
(-0.0980033 0.995186 0)
(-0.0980033 0.995186 0)
(-0.0980011 -0.995186 0)
(0.0980011 0.995186 0)
(0.0273456 -0.277685 -0.960283)
(-0.0273456 0.277685 0.960283)
(0.290279 -0.956942 0)
(-0.290279 0.956942 0)
(0.0214047 -0.217356 0.975858)
(-0.0214047 0.217356 -0.975858)
(0.634392 0.773011 0)
(0.634392 0.773011 -0)
(-0.634392 -0.773011 0)
(-0.634392 -0.773011 0)
(0.773013 0.63439 -0)
(-0.773013 -0.63439 0)
(-0.177013 -0.215691 0.960283)
(0.177013 0.215691 -0.960283)
(0.471401 0.881919 0)
(-0.471401 -0.881919 0)
(-0.138556 -0.168832 -0.975858)
(0.138556 0.168832 0.975858)
(0.995186 0.0980011 0)
(0.995186 0.0980011 -0)
(-0.995186 -0.0980011 0)
(-0.995186 -0.0980011 0)
(0.995186 -0.0980033 0)
(-0.995186 0.0980033 0)
(-0.277685 -0.027345 0.960283)
(0.277685 0.027345 -0.960283)
(0.956934 0.290305 0)
(-0.956934 -0.290305 0)
(0.217356 0.0214042 0.975858)
(-0.217356 -0.0214042 -0.975858)
(-0.471393 -0.881923 0)
(0.471393 0.881923 0)
(0.131531 0.24608 0.960283)
(-0.131531 -0.24608 -0.960283)
(-0.290285 -0.95694 -0)
(0.290285 0.95694 0)
(-0.102956 -0.192618 0.975858)
(0.102956 0.192618 -0.975858)
(-0.95694 -0.290285 0)
(0.95694 0.290285 0)
(-0.267012 -0.0809975 -0.960283)
(0.267012 0.0809975 0.960283)
(-0.881924 -0.471392 -0)
(0.881924 0.471392 0)
(-0.209003 -0.0634005 0.975858)
(0.209003 0.0634005 -0.975858)
(-0.881923 0.471393 0)
(0.881923 -0.471393 0)
(-0.24608 0.131531 -0.960283)
(0.24608 -0.131531 0.960283)
(-0.956942 0.290279 0)
(0.956942 -0.290279 0)
(-0.192618 0.102956 0.975858)
(0.192618 -0.102956 -0.975858)
(-0.290286 0.95694 0)
(0.290286 -0.95694 0)
(-0.0809977 0.267012 -0.960283)
(0.0809977 -0.267012 0.960283)
(-0.471392 0.881924 0)
(0.471392 -0.881924 0)
(-0.0634006 0.209003 0.975858)
(0.0634006 -0.209003 -0.975858)
(0.956934 0.290305 -0)
(-0.956934 -0.290305 0)
(0.267011 0.0810032 -0.960283)
(-0.267011 -0.0810032 0.960283)
(0.881923 0.471393 0)
(-0.881923 -0.471393 0)
(0.209002 0.0634049 0.975858)
(-0.209002 -0.0634049 -0.975858)
(0.881924 -0.471392 0)
(-0.881924 0.471392 0)
(0.246081 -0.131532 -0.960283)
(-0.246081 0.131532 0.960283)
(0.956936 -0.290299 0)
(-0.956936 0.290299 0)
(0.192619 -0.102956 0.975858)
(-0.192619 0.102956 -0.975858)
(0.290279 -0.956942 0)
(-0.290279 0.956942 0)
(0.0809957 -0.267013 -0.960283)
(-0.0809957 0.267013 0.960283)
(0.471402 -0.881918 0)
(-0.471402 0.881918 0)
(0.0633991 -0.209003 0.975858)
(-0.0633991 0.209003 -0.975858)
(0.471401 0.881919 -0)
(-0.471401 -0.881919 0)
(0.131534 0.246079 -0.960283)
(-0.131534 -0.246079 0.960283)
(0.29028 0.956942 0)
(-0.29028 -0.956942 0)
(0.102958 0.192618 0.975858)
(-0.102958 -0.192618 -0.975858)
(-0.290285 -0.95694 0)
(0.290285 0.95694 0)
(-0.0809973 -0.267012 -0.960283)
(0.0809973 0.267012 0.960283)
(-0.0980011 -0.995186 -0)
(0.0980011 0.995186 0)
(-0.0634003 -0.209003 0.975858)
(0.0634003 0.209003 -0.975858)
(-0.881924 -0.471392 0)
(0.881924 0.471392 0)
(-0.246081 -0.131531 -0.960283)
(0.246081 0.131531 0.960283)
(-0.773002 -0.634403 -0)
(0.773002 0.634403 0)
(-0.192619 -0.102956 0.975858)
(0.192619 0.102956 -0.975858)
(-0.956942 0.290279 0)
(0.956942 -0.290279 0)
(-0.267013 0.0809958 -0.960283)
(0.267013 -0.0809958 0.960283)
(-0.995184 0.0980248 0)
(0.995184 -0.0980248 0)
(0.209003 -0.0633991 -0.975858)
(-0.209003 0.0633991 0.975858)
(-0.471392 0.881924 0)
(0.471392 -0.881924 0)
(0.131531 -0.246081 0.960283)
(-0.131531 0.246081 -0.960283)
(-0.634393 0.773011 0)
(0.634393 -0.773011 0)
(0.102956 -0.192619 -0.975858)
(-0.102956 0.192619 0.975858)
(0.29028 0.956942 -0)
(-0.29028 -0.956942 0)
(-0.0809961 -0.267013 0.960283)
(0.0809961 0.267013 -0.960283)
(0.0980241 0.995184 0)
(-0.0980241 -0.995184 0)
(-0.0633993 -0.209003 -0.975858)
(0.0633993 0.209003 0.975858)
(0.881923 0.471393 -0)
(-0.881923 -0.471393 0)
(-0.246081 -0.131532 0.960283)
(0.246081 0.131532 -0.960283)
(0.773013 0.63439 0)
(-0.773013 -0.63439 0)
(-0.192619 -0.102956 -0.975858)
(0.192619 0.102956 0.975858)
(0.956936 -0.290299 0)
(-0.956936 0.290299 0)
(-0.267012 0.0810016 0.960283)
(0.267012 -0.0810016 -0.960283)
(0.995186 -0.0980033 0)
(-0.995186 0.0980033 0)
(0.209002 -0.0634036 0.975858)
(-0.209002 0.0634036 -0.975858)
(0.471402 -0.881918 0)
(-0.471402 0.881918 0)
(0.131534 -0.246079 -0.960283)
(-0.131534 0.246079 0.960283)
(0.634392 -0.773011 0)
(-0.634392 0.773011 0)
(0.102958 -0.192618 0.975858)
(-0.102958 0.192618 -0.975858)
(-0.0214042 -0.217356 0.975858)
(0.0214042 0.217356 -0.975858)
(0.027345 0.277685 0.960283)
(-0.027345 -0.277685 -0.960283)
(-0.277683 0.0273516 -0.960283)
(0.277683 -0.0273516 0.960283)
(-0.217355 0.0214093 0.975858)
(0.217355 -0.0214093 -0.975858)
(-0.177013 0.215691 -0.960283)
(0.177013 -0.215691 0.960283)
(-0.138556 0.168831 0.975858)
(0.138556 -0.168831 -0.975858)
(0.0273514 0.277683 -0.960283)
(-0.0273514 -0.277683 0.960283)
(0.0214092 0.217356 0.975858)
(-0.0214092 -0.217356 -0.975858)
(0.277685 -0.0273456 -0.960283)
(-0.277685 0.0273456 0.960283)
(0.217356 -0.0214047 0.975858)
(-0.217356 0.0214047 -0.975858)
(0.177013 -0.215691 -0.960283)
(-0.177013 0.215691 0.960283)
(0.138556 -0.168832 0.975858)
(-0.138556 0.168832 -0.975858)
(0.215689 0.177016 0.960283)
(-0.215689 -0.177016 -0.960283)
(-0.168829 -0.138558 0.975858)
(0.168829 0.138558 -0.975858)
(-0.215692 -0.177012 0.960283)
(0.215692 0.177012 -0.960283)
(0.168832 0.138556 0.975858)
(-0.168832 -0.138556 -0.975858)
)


192
(
4(0 1 2 3)
4(0 4 3 5)
4(0 3 6 7)
4(1 8 2 9)
4(1 10 11 2)
4(12 13 14 15)
4(12 16 15 17)
4(12 15 18 19)
4(13 20 14 21)
4(13 22 23 14)
4(24 25 26 27)
4(24 28 27 29)
4(24 27 30 31)
4(25 32 26 33)
4(25 34 26 35)
4(36 37 38 39)
4(36 40 39 41)
4(36 39 42 43)
4(37 44 38 45)
4(37 46 38 47)
4(48 49 50 51)
4(48 52 51 53)
4(48 51 54 55)
4(49 56 50 57)
4(49 50 58 59)
4(60 61 62 63)
4(60 64 63 65)
4(60 63 66 67)
4(61 68 62 69)
4(61 62 70 71)
4(72 73 74 75)
4(72 76 75 77)
4(72 75 78 79)
4(73 80 74 81)
4(73 82 74 83)
4(84 85 86 87)
4(84 88 87 89)
4(84 87 90 91)
4(85 92 86 93)
4(85 86 94 95)
4(8 96 97 9)
4(8 9 98 99)
4(96 100 97 101)
4(96 97 102 103)
4(20 104 105 21)
4(20 21 106 107)
4(104 108 105 109)
4(104 105 110 111)
4(32 112 113 33)
4(32 33 114 115)
4(112 116 113 117)
4(112 113 118 119)
4(44 120 121 45)
4(44 45 122 123)
4(120 124 121 125)
4(120 126 121 127)
4(92 128 129 93)
4(92 93 130 131)
4(128 132 129 133)
4(128 134 129 135)
4(56 136 137 57)
4(56 57 138 139)
4(136 140 137 141)
4(136 142 137 143)
4(68 144 145 69)
4(68 69 146 147)
4(144 148 145 149)
4(144 150 151 145)
4(80 152 153 81)
4(80 81 154 155)
4(152 156 153 157)
4(152 158 153 159)
4(100 160 161 101)
4(100 101 162 163)
4(160 164 161 165)
4(160 166 161 167)
4(108 168 169 109)
4(108 109 170 171)
4(168 172 169 173)
4(168 174 175 169)
4(116 176 177 117)
4(116 117 178 179)
4(176 180 177 181)
4(176 182 177 183)
4(124 184 185 125)
4(124 125 186 187)
4(184 188 185 189)
4(184 190 185 191)
4(156 192 193 157)
4(156 157 194 195)
4(192 196 193 197)
4(192 198 193 199)
4(132 200 201 133)
4(132 133 202 203)
4(200 204 201 205)
4(200 206 201 207)
4(140 208 209 141)
4(140 141 210 211)
4(208 212 209 213)
4(208 209 214 215)
4(148 216 217 149)
4(148 149 218 219)
4(216 220 217 221)
4(216 217 222 223)
4(64 164 65 165)
4(64 65 224 225)
4(164 165 226 227)
4(180 16 17 181)
4(180 181 228 229)
4(16 17 230 231)
4(188 28 29 189)
4(188 189 232 233)
4(28 29 234 235)
4(196 40 41 197)
4(196 197 236 237)
4(40 238 41 239)
4(212 88 89 213)
4(212 213 240 241)
4(88 242 243 89)
4(220 52 53 221)
4(220 221 244 245)
4(52 246 247 53)
4(172 4 5 173)
4(172 173 248 249)
4(4 250 251 5)
4(204 76 77 205)
4(204 205 252 253)
4(76 77 254 255)
4(150 151 222 223)
4(150 151 70 71)
4(250 174 251 175)
4(250 10 251 11)
4(82 158 159 83)
4(82 254 255 83)
4(206 134 135 207)
4(206 254 207 255)
4(174 175 110 111)
4(22 23 110 111)
4(22 23 230 231)
4(142 143 214 215)
4(142 143 58 59)
4(246 247 58 59)
4(246 247 222 223)
4(46 126 127 47)
4(46 238 239 47)
4(198 158 159 199)
4(198 238 239 199)
4(166 167 224 225)
4(166 167 102 103)
4(10 11 102 103)
4(134 135 94 95)
4(242 243 94 95)
4(242 243 214 215)
4(34 118 119 35)
4(34 234 235 35)
4(190 126 127 191)
4(190 234 235 191)
4(182 118 119 183)
4(182 230 231 183)
4(70 224 71 225)
4(248 6 249 7)
4(248 170 249 171)
4(154 194 155 195)
4(154 78 155 79)
4(186 122 123 187)
4(186 232 233 187)
4(30 31 114 115)
4(30 31 232 233)
4(240 210 241 211)
4(240 90 241 91)
4(130 202 131 203)
4(130 90 131 91)
4(6 98 7 99)
4(162 98 163 99)
4(162 226 163 227)
4(194 236 237 195)
4(42 43 122 123)
4(42 43 236 237)
4(244 245 218 219)
4(244 245 54 55)
4(138 210 139 211)
4(138 139 54 55)
4(18 19 228 229)
4(18 19 106 107)
4(170 171 106 107)
4(202 252 253 203)
4(78 252 253 79)
4(146 147 66 67)
4(146 147 218 219)
4(178 179 114 115)
4(178 179 228 229)
4(226 66 227 67)
)


66
(
8(0 2 4 5 10 11 250 251)
8(0 4 3 5 6 7 248 249)
8(0 2 6 7 8 9 98 99)
8(1 8 2 9 10 11 102 103)
8(12 14 16 17 22 23 230 231)
8(12 16 15 17 18 19 228 229)
8(12 14 18 19 20 21 106 107)
8(13 20 14 21 22 23 110 111)
8(24 26 28 29 34 35 234 235)
8(24 28 27 29 30 31 232 233)
8(24 26 30 31 32 33 114 115)
8(25 32 26 33 34 35 118 119)
8(36 38 40 41 46 47 238 239)
8(36 40 39 41 42 43 236 237)
8(36 38 42 43 44 45 122 123)
8(37 44 38 45 46 47 126 127)
8(48 50 52 53 58 59 246 247)
8(48 52 51 53 54 55 244 245)
8(48 50 54 55 56 57 138 139)
8(49 56 50 57 58 59 142 143)
8(60 62 64 65 70 71 224 225)
8(60 64 63 65 66 67 226 227)
8(60 62 66 67 68 69 146 147)
8(61 68 62 69 70 71 150 151)
8(72 74 76 77 82 83 254 255)
8(72 76 75 77 78 79 252 253)
8(72 74 78 79 80 81 154 155)
8(73 80 74 81 82 83 158 159)
8(84 86 88 89 94 95 242 243)
8(84 88 87 89 90 91 240 241)
8(84 86 90 91 92 93 130 131)
8(85 92 86 93 94 95 134 135)
8(8 97 98 99 100 101 162 163)
8(96 100 97 101 102 103 166 167)
8(20 105 106 107 108 109 170 171)
8(104 108 105 109 110 111 174 175)
8(32 113 114 115 116 117 178 179)
8(112 116 113 117 118 119 182 183)
8(44 121 122 123 124 125 186 187)
8(120 124 121 125 126 127 190 191)
8(92 129 130 131 132 133 202 203)
8(128 132 129 133 134 135 206 207)
8(56 137 138 139 140 141 210 211)
8(136 140 137 141 142 143 214 215)
8(68 145 146 147 148 149 218 219)
8(144 148 145 149 150 151 222 223)
8(80 153 154 155 156 157 194 195)
8(152 156 153 157 158 159 198 199)
8(100 161 162 163 164 165 226 227)
8(160 164 161 165 166 167 224 225)
8(108 169 170 171 172 173 248 249)
8(168 172 169 173 174 175 250 251)
8(116 177 178 179 180 181 228 229)
8(176 180 177 181 182 183 230 231)
8(124 185 186 187 188 189 232 233)
8(184 188 185 189 190 191 234 235)
8(156 193 194 195 196 197 236 237)
8(192 196 193 197 198 199 238 239)
8(132 201 202 203 204 205 252 253)
8(200 204 201 205 206 207 254 255)
8(140 209 210 211 212 213 240 241)
8(208 212 209 213 214 215 242 243)
8(148 217 218 219 220 221 244 245)
8(216 220 217 221 222 223 246 247)

64
(
150
151
222
223
70
71
250
174
251
175
10
11
82
158
159
83
254
255
206
134
135
207
110
111
22
23
230
231
142
143
214
215
58
59
246
247
46
126
127
47
238
239
198
199
166
167
224
225
102
103
94
95
242
243
34
118
119
35
234
235
190
191
182
183
)


64
(
248
6
249
7
170
171
154
194
155
195
78
79
186
122
123
187
232
233
30
31
114
115
240
210
241
211
90
91
130
202
131
203
98
99
162
163
226
227
236
237
42
43
244
245
218
219
54
55
138
139
18
19
228
229
106
107
252
253
146
147
66
67
178
179
)

)


192
(
0
1
2
3
4
5
6
7
8
9
10
11
12
13
14
15
16
17
18
19
20
21
22
23
24
25
26
27
28
29
30
31
32
33
34
35
36
37
38
39
40
41
42
43
44
45
46
47
48
49
50
51
52
53
54
55
56
57
58
59
60
61
62
63
64
65
66
67
68
69
70
71
72
73
74
75
76
77
78
79
80
81
82
83
84
85
86
87
88
89
90
91
92
93
94
95
96
97
98
99
100
101
102
103
104
105
106
107
108
109
110
111
112
113
114
115
116
117
118
119
120
121
122
123
124
125
126
127
128
129
130
131
132
133
134
135
136
137
138
139
140
141
142
143
144
145
146
147
148
149
150
151
152
153
154
155
156
157
158
159
160
161
162
163
164
165
166
167
168
169
170
171
172
173
174
175
176
177
178
179
180
181
182
183
184
185
186
187
188
189
190
191
)



// ************************************************************************* //
