FoamFile
{
  version 2.0;
  format ascii;
  class dictionary;
  object autoHexMeshDict;
}

castellatedMesh true;
snap true;
addLayers false;

geometry
{
  box
  {
    type searchableBox;
    min (-0.2 -0.2 -0.02);
    max (0.44 0.2 0.32);
  }
  sphere
  {
    type searchableSphere;
    centre (3 3 0);
    radius 4;
  }
  cylinder
  {
    type searchableCylinder;
    point1 (0 0 0);
    point2 (1 0 0);
    radius 0.1;
  }
} 