FoamFile
{
  version 2.0;
  format ascii;
  class dictionary;
  object autoHexMeshDict;
}

castellatedMesh true;
snap true;
addLayers false;

geometry
{
  19.stl
  {
    type triSurfaceMesh;
    regions
    {
      secondSolid           // Named region in the STL file
      {
        name mySecondPatch; // User-defined patch name
      }                     // otherwise given sphere.stl_secondSolid
    }
  }
} 


