/*--------------------------------*- C++ -*----------------------------------*\
| =========                 |                                                 |
| \\      /  F ield         | OpenFOAM: The Open Source CFD Toolbox           |
|  \\    /   O peration     | Version:  2.1                                   |
|   \\  /    A nd           | Web:      www.OpenFOAM.org                      |
|    \\/     M anipulation  |                                                 |
\*---------------------------------------------------------------------------*/
/*   Windows 32 and 64 bit porting by blueCAPE: http://www.bluecape.com.pt   *\
|  Based on Windows porting (2.0.x v4) by Symscape: http://www.symscape.com   |
\*---------------------------------------------------------------------------*/
FoamFile
{
    version     2.0;
    format      ascii;
    class       extendedFeatureEdgeMesh;
    location    "constant/extendedFeatureEdgeMesh";
    object      mymesh.extendedFeatureEdgeMesh;
}
// * * * * * * * * * * * * * * * * * * * * * * * * * * * * * * * * * * * * * //

// points, edges, concaveStart, mixedStart, nonFeatureStart, 
// internalStart, flatStart, openStart, multipleStart, 
// normals, edgeNormals, featurePointNormals, regionEdges


32
(
(0.695458 0.5 0.655872)
(0.743732 0.5 0.55563)
(0.672345 0.672345 0.55563)
(0.63821 0.63821 0.655872)
(0.743732 0.5 0.44437)
(0.672345 0.672345 0.44437)
(0.695458 0.5 0.344128)
(0.63821 0.63821 0.344128)
(0.5 0.743732 0.55563)
(0.5 0.695458 0.655872)
(0.5 0.743732 0.44437)
(0.5 0.695458 0.344128)
(0.327655 0.672345 0.55563)
(0.36179 0.63821 0.655872)
(0.327655 0.672345 0.44437)
(0.36179 0.63821 0.344128)
(0.256268 0.5 0.55563)
(0.304542 0.5 0.655872)
(0.256268 0.5 0.44437)
(0.304542 0.5 0.344128)
(0.327655 0.327655 0.55563)
(0.36179 0.36179 0.655872)
(0.327655 0.327655 0.44437)
(0.36179 0.36179 0.344128)
(0.5 0.256268 0.55563)
(0.5 0.304542 0.655872)
(0.5 0.256268 0.44437)
(0.5 0.304542 0.344128)
(0.672345 0.327655 0.55563)
(0.63821 0.36179 0.655872)
(0.672345 0.327655 0.44437)
(0.63821 0.36179 0.344128)
)


24
(
(0 1)
(2 3)
(1 4)
(5 2)
(4 6)
(7 5)
(8 9)
(10 8)
(11 10)
(12 13)
(14 12)
(15 14)
(16 17)
(18 16)
(19 18)
(20 21)
(22 20)
(23 22)
(24 25)
(26 24)
(27 26)
(28 29)
(30 28)
(31 30)
)

0 0 0 24 24 24 24

48
(
(0.844105 0.349636 0.406499)
(0.844105 -0.349637 0.406499)
(0.844104 0.349637 0.4065)
(0.349636 0.844104 0.4065)
(0.923881 0.382681 0)
(0.923881 -0.38268 0)
(0.923881 0.382681 0)
(0.382681 0.923881 0)
(0.844105 0.349637 -0.406499)
(0.844105 -0.349636 -0.406499)
(0.844105 0.349636 -0.4065)
(0.349637 0.844104 -0.4065)
(0.349637 0.844105 0.406499)
(-0.349636 0.844105 0.406499)
(0.382681 0.923881 0)
(-0.38268 0.923881 0)
(0.349636 0.844105 -0.406499)
(-0.349637 0.844105 -0.406499)
(-0.349637 0.844104 0.4065)
(-0.844104 0.349636 0.4065)
(-0.38268 0.923881 0)
(-0.923881 0.382681 0)
(-0.349636 0.844105 -0.4065)
(-0.844104 0.349637 -0.4065)
(-0.844104 0.349637 0.4065)
(-0.844105 -0.349636 0.4065)
(-0.923881 0.382681 0)
(-0.923881 -0.38268 -0)
(-0.844105 0.349636 -0.406499)
(-0.844104 -0.349637 -0.406499)
(-0.844104 -0.349637 0.4065)
(-0.349636 -0.844104 0.4065)
(-0.923881 -0.38268 0)
(-0.38268 -0.923881 -0)
(-0.844104 -0.349636 -0.4065)
(-0.349637 -0.844104 -0.4065)
(-0.349637 -0.844104 0.4065)
(0.349636 -0.844105 0.4065)
(-0.38268 -0.923881 0)
(0.382681 -0.923881 0)
(-0.349636 -0.844105 -0.406499)
(0.349637 -0.844104 -0.406499)
(0.349637 -0.844104 0.4065)
(0.844104 -0.349636 0.4065)
(0.382681 -0.923881 0)
(0.923881 -0.38268 0)
(0.349636 -0.844104 -0.4065)
(0.844104 -0.349637 -0.4065)
)


24
(
2(0 1)
2(2 3)
2(4 5)
2(6 7)
2(8 9)
2(10 11)
2(12 13)
2(14 15)
2(16 17)
2(18 19)
2(20 21)
2(22 23)
2(24 25)
2(26 27)
2(28 29)
2(30 31)
2(32 33)
2(34 35)
2(36 37)
2(38 39)
2(40 41)
2(42 43)
2(44 45)
2(46 47)
)


0
(
)

0()


// ************************************************************************* //
